* NGSPICE file created from alu.ext - technology: sky130A

* Black-box entry subcircuit for sky130_ef_sc_hd__decap_12 abstract view
.subckt sky130_ef_sc_hd__decap_12 VPWR VGND VPB VNB
.ends

* Black-box entry subcircuit for sky130_fd_sc_hd__fill_1 abstract view
.subckt sky130_fd_sc_hd__fill_1 VGND VNB VPB VPWR
.ends

* Black-box entry subcircuit for sky130_fd_sc_hd__tapvpwrvgnd_1 abstract view
.subckt sky130_fd_sc_hd__tapvpwrvgnd_1 VGND VPWR
.ends

* Black-box entry subcircuit for sky130_fd_sc_hd__decap_6 abstract view
.subckt sky130_fd_sc_hd__decap_6 VGND VNB VPB VPWR
.ends

* Black-box entry subcircuit for sky130_fd_sc_hd__and4_1 abstract view
.subckt sky130_fd_sc_hd__and4_1 A B C D VGND VNB VPB VPWR X
.ends

* Black-box entry subcircuit for sky130_fd_sc_hd__decap_4 abstract view
.subckt sky130_fd_sc_hd__decap_4 VGND VNB VPB VPWR
.ends

* Black-box entry subcircuit for sky130_fd_sc_hd__or2_1 abstract view
.subckt sky130_fd_sc_hd__or2_1 A B VGND VNB VPB VPWR X
.ends

* Black-box entry subcircuit for sky130_fd_sc_hd__fill_2 abstract view
.subckt sky130_fd_sc_hd__fill_2 VGND VNB VPB VPWR
.ends

* Black-box entry subcircuit for sky130_fd_sc_hd__xnor2_1 abstract view
.subckt sky130_fd_sc_hd__xnor2_1 A B VGND VNB VPB VPWR Y
.ends

* Black-box entry subcircuit for sky130_fd_sc_hd__nand3_2 abstract view
.subckt sky130_fd_sc_hd__nand3_2 A B C VGND VNB VPB VPWR Y
.ends

* Black-box entry subcircuit for sky130_fd_sc_hd__decap_3 abstract view
.subckt sky130_fd_sc_hd__decap_3 VGND VNB VPB VPWR
.ends

* Black-box entry subcircuit for sky130_fd_sc_hd__nand2_1 abstract view
.subckt sky130_fd_sc_hd__nand2_1 A B VGND VNB VPB VPWR Y
.ends

* Black-box entry subcircuit for sky130_fd_sc_hd__a31o_1 abstract view
.subckt sky130_fd_sc_hd__a31o_1 A1 A2 A3 B1 VGND VNB VPB VPWR X
.ends

* Black-box entry subcircuit for sky130_fd_sc_hd__nor2_1 abstract view
.subckt sky130_fd_sc_hd__nor2_1 A B VGND VNB VPB VPWR Y
.ends

* Black-box entry subcircuit for sky130_fd_sc_hd__decap_8 abstract view
.subckt sky130_fd_sc_hd__decap_8 VGND VNB VPB VPWR
.ends

* Black-box entry subcircuit for sky130_fd_sc_hd__a22o_1 abstract view
.subckt sky130_fd_sc_hd__a22o_1 A1 A2 B1 B2 VGND VNB VPB VPWR X
.ends

* Black-box entry subcircuit for sky130_fd_sc_hd__a21oi_1 abstract view
.subckt sky130_fd_sc_hd__a21oi_1 A1 A2 B1 VGND VNB VPB VPWR Y
.ends

* Black-box entry subcircuit for sky130_fd_sc_hd__o21a_1 abstract view
.subckt sky130_fd_sc_hd__o21a_1 A1 A2 B1 VGND VNB VPB VPWR X
.ends

* Black-box entry subcircuit for sky130_fd_sc_hd__o21ba_1 abstract view
.subckt sky130_fd_sc_hd__o21ba_1 A1 A2 B1_N VGND VNB VPB VPWR X
.ends

* Black-box entry subcircuit for sky130_fd_sc_hd__a22oi_1 abstract view
.subckt sky130_fd_sc_hd__a22oi_1 A1 A2 B1 B2 VGND VNB VPB VPWR Y
.ends

* Black-box entry subcircuit for sky130_fd_sc_hd__a21o_1 abstract view
.subckt sky130_fd_sc_hd__a21o_1 A1 A2 B1 VGND VNB VPB VPWR X
.ends

* Black-box entry subcircuit for sky130_fd_sc_hd__a21bo_1 abstract view
.subckt sky130_fd_sc_hd__a21bo_1 A1 A2 B1_N VGND VNB VPB VPWR X
.ends

* Black-box entry subcircuit for sky130_fd_sc_hd__clkbuf_4 abstract view
.subckt sky130_fd_sc_hd__clkbuf_4 A VGND VNB VPB VPWR X
.ends

* Black-box entry subcircuit for sky130_fd_sc_hd__buf_4 abstract view
.subckt sky130_fd_sc_hd__buf_4 A VGND VNB VPB VPWR X
.ends

* Black-box entry subcircuit for sky130_fd_sc_hd__a32o_1 abstract view
.subckt sky130_fd_sc_hd__a32o_1 A1 A2 A3 B1 B2 VGND VNB VPB VPWR X
.ends

* Black-box entry subcircuit for sky130_fd_sc_hd__nand3_1 abstract view
.subckt sky130_fd_sc_hd__nand3_1 A B C VGND VNB VPB VPWR Y
.ends

* Black-box entry subcircuit for sky130_fd_sc_hd__a21oi_2 abstract view
.subckt sky130_fd_sc_hd__a21oi_2 A1 A2 B1 VGND VNB VPB VPWR Y
.ends

* Black-box entry subcircuit for sky130_fd_sc_hd__mux2_1 abstract view
.subckt sky130_fd_sc_hd__mux2_1 A0 A1 S VGND VNB VPB VPWR X
.ends

* Black-box entry subcircuit for sky130_fd_sc_hd__xor2_1 abstract view
.subckt sky130_fd_sc_hd__xor2_1 A B VGND VNB VPB VPWR X
.ends

* Black-box entry subcircuit for sky130_fd_sc_hd__and2_1 abstract view
.subckt sky130_fd_sc_hd__and2_1 A B VGND VNB VPB VPWR X
.ends

* Black-box entry subcircuit for sky130_fd_sc_hd__o21ai_1 abstract view
.subckt sky130_fd_sc_hd__o21ai_1 A1 A2 B1 VGND VNB VPB VPWR Y
.ends

* Black-box entry subcircuit for sky130_fd_sc_hd__o211ai_4 abstract view
.subckt sky130_fd_sc_hd__o211ai_4 A1 A2 B1 C1 VGND VNB VPB VPWR Y
.ends

* Black-box entry subcircuit for sky130_fd_sc_hd__or3_1 abstract view
.subckt sky130_fd_sc_hd__or3_1 A B C VGND VNB VPB VPWR X
.ends

* Black-box entry subcircuit for sky130_fd_sc_hd__nand2_2 abstract view
.subckt sky130_fd_sc_hd__nand2_2 A B VGND VNB VPB VPWR Y
.ends

* Black-box entry subcircuit for sky130_fd_sc_hd__mux4_1 abstract view
.subckt sky130_fd_sc_hd__mux4_1 A0 A1 A2 A3 S0 S1 VGND VNB VPB VPWR X
.ends

* Black-box entry subcircuit for sky130_fd_sc_hd__nor3_1 abstract view
.subckt sky130_fd_sc_hd__nor3_1 A B C VGND VNB VPB VPWR Y
.ends

* Black-box entry subcircuit for sky130_fd_sc_hd__o22a_1 abstract view
.subckt sky130_fd_sc_hd__o22a_1 A1 A2 B1 B2 VGND VNB VPB VPWR X
.ends

* Black-box entry subcircuit for sky130_fd_sc_hd__o311a_1 abstract view
.subckt sky130_fd_sc_hd__o311a_1 A1 A2 A3 B1 C1 VGND VNB VPB VPWR X
.ends

* Black-box entry subcircuit for sky130_fd_sc_hd__nand4_1 abstract view
.subckt sky130_fd_sc_hd__nand4_1 A B C D VGND VNB VPB VPWR Y
.ends

* Black-box entry subcircuit for sky130_fd_sc_hd__diode_2 abstract view
.subckt sky130_fd_sc_hd__diode_2 DIODE VGND VNB VPB VPWR
.ends

* Black-box entry subcircuit for sky130_fd_sc_hd__and3_1 abstract view
.subckt sky130_fd_sc_hd__and3_1 A B C VGND VNB VPB VPWR X
.ends

* Black-box entry subcircuit for sky130_fd_sc_hd__o211ai_2 abstract view
.subckt sky130_fd_sc_hd__o211ai_2 A1 A2 B1 C1 VGND VNB VPB VPWR Y
.ends

* Black-box entry subcircuit for sky130_fd_sc_hd__xor2_2 abstract view
.subckt sky130_fd_sc_hd__xor2_2 A B VGND VNB VPB VPWR X
.ends

* Black-box entry subcircuit for sky130_fd_sc_hd__or3_2 abstract view
.subckt sky130_fd_sc_hd__or3_2 A B C VGND VNB VPB VPWR X
.ends

* Black-box entry subcircuit for sky130_fd_sc_hd__and4bb_1 abstract view
.subckt sky130_fd_sc_hd__and4bb_1 A_N B_N C D VGND VNB VPB VPWR X
.ends

* Black-box entry subcircuit for sky130_fd_sc_hd__or3b_1 abstract view
.subckt sky130_fd_sc_hd__or3b_1 A B C_N VGND VNB VPB VPWR X
.ends

* Black-box entry subcircuit for sky130_fd_sc_hd__a211oi_1 abstract view
.subckt sky130_fd_sc_hd__a211oi_1 A1 A2 B1 C1 VGND VNB VPB VPWR Y
.ends

* Black-box entry subcircuit for sky130_fd_sc_hd__and2b_1 abstract view
.subckt sky130_fd_sc_hd__and2b_1 A_N B VGND VNB VPB VPWR X
.ends

* Black-box entry subcircuit for sky130_fd_sc_hd__o211a_1 abstract view
.subckt sky130_fd_sc_hd__o211a_1 A1 A2 B1 C1 VGND VNB VPB VPWR X
.ends

* Black-box entry subcircuit for sky130_fd_sc_hd__o221a_1 abstract view
.subckt sky130_fd_sc_hd__o221a_1 A1 A2 B1 B2 C1 VGND VNB VPB VPWR X
.ends

* Black-box entry subcircuit for sky130_fd_sc_hd__nand2b_1 abstract view
.subckt sky130_fd_sc_hd__nand2b_1 A_N B VGND VNB VPB VPWR Y
.ends

* Black-box entry subcircuit for sky130_fd_sc_hd__buf_2 abstract view
.subckt sky130_fd_sc_hd__buf_2 A VGND VNB VPB VPWR X
.ends

* Black-box entry subcircuit for sky130_fd_sc_hd__o2bb2a_1 abstract view
.subckt sky130_fd_sc_hd__o2bb2a_1 A1_N A2_N B1 B2 VGND VNB VPB VPWR X
.ends

* Black-box entry subcircuit for sky130_fd_sc_hd__nand4_2 abstract view
.subckt sky130_fd_sc_hd__nand4_2 A B C D VGND VNB VPB VPWR Y
.ends

* Black-box entry subcircuit for sky130_fd_sc_hd__inv_2 abstract view
.subckt sky130_fd_sc_hd__inv_2 A VGND VNB VPB VPWR Y
.ends

* Black-box entry subcircuit for sky130_fd_sc_hd__or4_1 abstract view
.subckt sky130_fd_sc_hd__or4_1 A B C D VGND VNB VPB VPWR X
.ends

* Black-box entry subcircuit for sky130_fd_sc_hd__and2_2 abstract view
.subckt sky130_fd_sc_hd__and2_2 A B VGND VNB VPB VPWR X
.ends

* Black-box entry subcircuit for sky130_fd_sc_hd__or2_2 abstract view
.subckt sky130_fd_sc_hd__or2_2 A B VGND VNB VPB VPWR X
.ends

* Black-box entry subcircuit for sky130_fd_sc_hd__a211o_1 abstract view
.subckt sky130_fd_sc_hd__a211o_1 A1 A2 B1 C1 VGND VNB VPB VPWR X
.ends

* Black-box entry subcircuit for sky130_fd_sc_hd__o211ai_1 abstract view
.subckt sky130_fd_sc_hd__o211ai_1 A1 A2 B1 C1 VGND VNB VPB VPWR Y
.ends

* Black-box entry subcircuit for sky130_fd_sc_hd__nor3b_4 abstract view
.subckt sky130_fd_sc_hd__nor3b_4 A B C_N VGND VNB VPB VPWR Y
.ends

* Black-box entry subcircuit for sky130_fd_sc_hd__a221o_1 abstract view
.subckt sky130_fd_sc_hd__a221o_1 A1 A2 B1 B2 C1 VGND VNB VPB VPWR X
.ends

* Black-box entry subcircuit for sky130_fd_sc_hd__clkbuf_2 abstract view
.subckt sky130_fd_sc_hd__clkbuf_2 A VGND VNB VPB VPWR X
.ends

* Black-box entry subcircuit for sky130_fd_sc_hd__a22oi_2 abstract view
.subckt sky130_fd_sc_hd__a22oi_2 A1 A2 B1 B2 VGND VNB VPB VPWR Y
.ends

* Black-box entry subcircuit for sky130_fd_sc_hd__a2bb2o_1 abstract view
.subckt sky130_fd_sc_hd__a2bb2o_1 A1_N A2_N B1 B2 VGND VNB VPB VPWR X
.ends

* Black-box entry subcircuit for sky130_fd_sc_hd__nor4_1 abstract view
.subckt sky130_fd_sc_hd__nor4_1 A B C D VGND VNB VPB VPWR Y
.ends

* Black-box entry subcircuit for sky130_fd_sc_hd__buf_1 abstract view
.subckt sky130_fd_sc_hd__buf_1 A VGND VNB VPB VPWR X
.ends

* Black-box entry subcircuit for sky130_fd_sc_hd__o21bai_1 abstract view
.subckt sky130_fd_sc_hd__o21bai_1 A1 A2 B1_N VGND VNB VPB VPWR Y
.ends

* Black-box entry subcircuit for sky130_fd_sc_hd__o32a_1 abstract view
.subckt sky130_fd_sc_hd__o32a_1 A1 A2 A3 B1 B2 VGND VNB VPB VPWR X
.ends

* Black-box entry subcircuit for sky130_fd_sc_hd__a211o_2 abstract view
.subckt sky130_fd_sc_hd__a211o_2 A1 A2 B1 C1 VGND VNB VPB VPWR X
.ends

* Black-box entry subcircuit for sky130_fd_sc_hd__a211oi_2 abstract view
.subckt sky130_fd_sc_hd__a211oi_2 A1 A2 B1 C1 VGND VNB VPB VPWR Y
.ends

* Black-box entry subcircuit for sky130_fd_sc_hd__o31a_1 abstract view
.subckt sky130_fd_sc_hd__o31a_1 A1 A2 A3 B1 VGND VNB VPB VPWR X
.ends

* Black-box entry subcircuit for sky130_fd_sc_hd__nor2_2 abstract view
.subckt sky130_fd_sc_hd__nor2_2 A B VGND VNB VPB VPWR Y
.ends

* Black-box entry subcircuit for sky130_fd_sc_hd__a311o_1 abstract view
.subckt sky130_fd_sc_hd__a311o_1 A1 A2 A3 B1 C1 VGND VNB VPB VPWR X
.ends

* Black-box entry subcircuit for sky130_fd_sc_hd__or4bb_2 abstract view
.subckt sky130_fd_sc_hd__or4bb_2 A B C_N D_N VGND VNB VPB VPWR X
.ends

* Black-box entry subcircuit for sky130_fd_sc_hd__or3_4 abstract view
.subckt sky130_fd_sc_hd__or3_4 A B C VGND VNB VPB VPWR X
.ends

* Black-box entry subcircuit for sky130_fd_sc_hd__dfxtp_1 abstract view
.subckt sky130_fd_sc_hd__dfxtp_1 CLK D VGND VNB VPB VPWR Q
.ends

* Black-box entry subcircuit for sky130_fd_sc_hd__a221oi_1 abstract view
.subckt sky130_fd_sc_hd__a221oi_1 A1 A2 B1 B2 C1 VGND VNB VPB VPWR Y
.ends

* Black-box entry subcircuit for sky130_fd_sc_hd__nor3_2 abstract view
.subckt sky130_fd_sc_hd__nor3_2 A B C VGND VNB VPB VPWR Y
.ends

* Black-box entry subcircuit for sky130_fd_sc_hd__xnor2_4 abstract view
.subckt sky130_fd_sc_hd__xnor2_4 A B VGND VNB VPB VPWR Y
.ends

* Black-box entry subcircuit for sky130_fd_sc_hd__a211oi_4 abstract view
.subckt sky130_fd_sc_hd__a211oi_4 A1 A2 B1 C1 VGND VNB VPB VPWR Y
.ends

* Black-box entry subcircuit for sky130_fd_sc_hd__or4b_2 abstract view
.subckt sky130_fd_sc_hd__or4b_2 A B C D_N VGND VNB VPB VPWR X
.ends

* Black-box entry subcircuit for sky130_fd_sc_hd__o21ai_2 abstract view
.subckt sky130_fd_sc_hd__o21ai_2 A1 A2 B1 VGND VNB VPB VPWR Y
.ends

* Black-box entry subcircuit for sky130_fd_sc_hd__nand3b_1 abstract view
.subckt sky130_fd_sc_hd__nand3b_1 A_N B C VGND VNB VPB VPWR Y
.ends

* Black-box entry subcircuit for sky130_fd_sc_hd__and3_2 abstract view
.subckt sky130_fd_sc_hd__and3_2 A B C VGND VNB VPB VPWR X
.ends

* Black-box entry subcircuit for sky130_fd_sc_hd__dlymetal6s2s_1 abstract view
.subckt sky130_fd_sc_hd__dlymetal6s2s_1 A VGND VNB VPB VPWR X
.ends

* Black-box entry subcircuit for sky130_fd_sc_hd__and3b_1 abstract view
.subckt sky130_fd_sc_hd__and3b_1 A_N B C VGND VNB VPB VPWR X
.ends

* Black-box entry subcircuit for sky130_fd_sc_hd__nor2_4 abstract view
.subckt sky130_fd_sc_hd__nor2_4 A B VGND VNB VPB VPWR Y
.ends

* Black-box entry subcircuit for sky130_fd_sc_hd__xnor2_2 abstract view
.subckt sky130_fd_sc_hd__xnor2_2 A B VGND VNB VPB VPWR Y
.ends

* Black-box entry subcircuit for sky130_fd_sc_hd__nor3_4 abstract view
.subckt sky130_fd_sc_hd__nor3_4 A B C VGND VNB VPB VPWR Y
.ends

* Black-box entry subcircuit for sky130_fd_sc_hd__clkbuf_8 abstract view
.subckt sky130_fd_sc_hd__clkbuf_8 A VGND VNB VPB VPWR X
.ends

* Black-box entry subcircuit for sky130_fd_sc_hd__clkbuf_1 abstract view
.subckt sky130_fd_sc_hd__clkbuf_1 A VGND VNB VPB VPWR X
.ends

* Black-box entry subcircuit for sky130_fd_sc_hd__o22ai_2 abstract view
.subckt sky130_fd_sc_hd__o22ai_2 A1 A2 B1 B2 VGND VNB VPB VPWR Y
.ends

* Black-box entry subcircuit for sky130_fd_sc_hd__nand3b_2 abstract view
.subckt sky130_fd_sc_hd__nand3b_2 A_N B C VGND VNB VPB VPWR Y
.ends

* Black-box entry subcircuit for sky130_fd_sc_hd__or4_4 abstract view
.subckt sky130_fd_sc_hd__or4_4 A B C D VGND VNB VPB VPWR X
.ends

* Black-box entry subcircuit for sky130_fd_sc_hd__a2bb2oi_1 abstract view
.subckt sky130_fd_sc_hd__a2bb2oi_1 A1_N A2_N B1 B2 VGND VNB VPB VPWR Y
.ends

* Black-box entry subcircuit for sky130_fd_sc_hd__and4b_1 abstract view
.subckt sky130_fd_sc_hd__and4b_1 A_N B C D VGND VNB VPB VPWR X
.ends

* Black-box entry subcircuit for sky130_fd_sc_hd__or4bb_1 abstract view
.subckt sky130_fd_sc_hd__or4bb_1 A B C_N D_N VGND VNB VPB VPWR X
.ends

* Black-box entry subcircuit for sky130_fd_sc_hd__a2111oi_1 abstract view
.subckt sky130_fd_sc_hd__a2111oi_1 A1 A2 B1 C1 D1 VGND VNB VPB VPWR Y
.ends

* Black-box entry subcircuit for sky130_fd_sc_hd__o211a_2 abstract view
.subckt sky130_fd_sc_hd__o211a_2 A1 A2 B1 C1 VGND VNB VPB VPWR X
.ends

* Black-box entry subcircuit for sky130_fd_sc_hd__a21boi_1 abstract view
.subckt sky130_fd_sc_hd__a21boi_1 A1 A2 B1_N VGND VNB VPB VPWR Y
.ends

* Black-box entry subcircuit for sky130_fd_sc_hd__and4bb_2 abstract view
.subckt sky130_fd_sc_hd__and4bb_2 A_N B_N C D VGND VNB VPB VPWR X
.ends

* Black-box entry subcircuit for sky130_fd_sc_hd__nor3b_2 abstract view
.subckt sky130_fd_sc_hd__nor3b_2 A B C_N VGND VNB VPB VPWR Y
.ends

* Black-box entry subcircuit for sky130_fd_sc_hd__nor3b_1 abstract view
.subckt sky130_fd_sc_hd__nor3b_1 A B C_N VGND VNB VPB VPWR Y
.ends

* Black-box entry subcircuit for sky130_fd_sc_hd__o31ai_1 abstract view
.subckt sky130_fd_sc_hd__o31ai_1 A1 A2 A3 B1 VGND VNB VPB VPWR Y
.ends

* Black-box entry subcircuit for sky130_fd_sc_hd__a2111o_1 abstract view
.subckt sky130_fd_sc_hd__a2111o_1 A1 A2 B1 C1 D1 VGND VNB VPB VPWR X
.ends

* Black-box entry subcircuit for sky130_fd_sc_hd__or4b_1 abstract view
.subckt sky130_fd_sc_hd__or4b_1 A B C D_N VGND VNB VPB VPWR X
.ends

* Black-box entry subcircuit for sky130_fd_sc_hd__o221ai_1 abstract view
.subckt sky130_fd_sc_hd__o221ai_1 A1 A2 B1 B2 C1 VGND VNB VPB VPWR Y
.ends

* Black-box entry subcircuit for sky130_fd_sc_hd__or3b_2 abstract view
.subckt sky130_fd_sc_hd__or3b_2 A B C_N VGND VNB VPB VPWR X
.ends

* Black-box entry subcircuit for sky130_fd_sc_hd__o31ai_2 abstract view
.subckt sky130_fd_sc_hd__o31ai_2 A1 A2 A3 B1 VGND VNB VPB VPWR Y
.ends

* Black-box entry subcircuit for sky130_fd_sc_hd__nand4_4 abstract view
.subckt sky130_fd_sc_hd__nand4_4 A B C D VGND VNB VPB VPWR Y
.ends

* Black-box entry subcircuit for sky130_fd_sc_hd__and3b_4 abstract view
.subckt sky130_fd_sc_hd__and3b_4 A_N B C VGND VNB VPB VPWR X
.ends

* Black-box entry subcircuit for sky130_fd_sc_hd__a31oi_1 abstract view
.subckt sky130_fd_sc_hd__a31oi_1 A1 A2 A3 B1 VGND VNB VPB VPWR Y
.ends

* Black-box entry subcircuit for sky130_fd_sc_hd__or2_4 abstract view
.subckt sky130_fd_sc_hd__or2_4 A B VGND VNB VPB VPWR X
.ends

.subckt alu VGND VPWR a[0] a[10] a[11] a[12] a[13] a[14] a[15] a[16] a[17] a[18] a[19]
+ a[1] a[20] a[21] a[22] a[23] a[24] a[25] a[26] a[27] a[28] a[29] a[2] a[30] a[31]
+ a[3] a[4] a[5] a[6] a[7] a[8] a[9] b[0] b[10] b[11] b[12] b[13] b[14] b[15] b[16]
+ b[17] b[18] b[19] b[1] b[20] b[21] b[22] b[23] b[24] b[25] b[26] b[27] b[28] b[29]
+ b[2] b[30] b[31] b[3] b[4] b[5] b[6] b[7] b[8] b[9] clock done_port opcode[0] opcode[1]
+ opcode[2] opcode[3] opcode[4] opcode[5] opcode[6] opcode[7] reset return_port[0]
+ return_port[10] return_port[11] return_port[12] return_port[13] return_port[14]
+ return_port[15] return_port[16] return_port[17] return_port[18] return_port[19]
+ return_port[1] return_port[20] return_port[21] return_port[22] return_port[23] return_port[24]
+ return_port[25] return_port[26] return_port[27] return_port[28] return_port[29]
+ return_port[2] return_port[30] return_port[31] return_port[3] return_port[4] return_port[5]
+ return_port[6] return_port[7] return_port[8] return_port[9] start_port
XFILLER_82_512 VPWR VGND VPWR VGND sky130_ef_sc_hd__decap_12
XFILLER_94_372 VGND VGND VPWR VPWR sky130_fd_sc_hd__fill_1
XFILLER_82_545 VPWR VGND VPWR VGND sky130_ef_sc_hd__decap_12
XFILLER_39_299 VPWR VGND VPWR VGND sky130_ef_sc_hd__decap_12
XFILLER_82_589 VPWR VGND VPWR VGND sky130_ef_sc_hd__decap_12
XTAP_TAPCELL_ROW_81_1226 VGND VPWR sky130_fd_sc_hd__tapvpwrvgnd_1
XFILLER_22_133 VGND VGND VPWR VPWR sky130_fd_sc_hd__decap_6
X_6845_ _2766_ _2767_ _2768_ _2769_ VGND VGND VPWR VPWR _2770_ sky130_fd_sc_hd__and4_1
XFILLER_52_29 VGND VGND VPWR VPWR sky130_fd_sc_hd__decap_4
XTAP_TAPCELL_ROW_61_982 VGND VPWR sky130_fd_sc_hd__tapvpwrvgnd_1
X_3988_ net231 _3176_ VGND VGND VPWR VPWR _3177_ sky130_fd_sc_hd__or2_1
XFILLER_10_306 VGND VGND VPWR VPWR sky130_fd_sc_hd__fill_2
X_6776_ _2685_ _2693_ VGND VGND VPWR VPWR _2694_ sky130_fd_sc_hd__xnor2_1
XTAP_TAPCELL_ROW_33_651 VGND VPWR sky130_fd_sc_hd__tapvpwrvgnd_1
X_5727_ _1545_ _1548_ _1549_ VGND VGND VPWR VPWR _1551_ sky130_fd_sc_hd__nand3_2
XFILLER_50_497 VPWR VGND VPWR VGND sky130_ef_sc_hd__decap_12
XPHY_EDGE_ROW_107_Left_224 VGND VGND VPWR VPWR sky130_fd_sc_hd__decap_3
X_5658_ net389 net302 VGND VGND VPWR VPWR _1475_ sky130_fd_sc_hd__nand2_1
X_4609_ net424 net196 _0292_ _0291_ VGND VGND VPWR VPWR _0372_ sky130_fd_sc_hd__a31o_1
XTAP_TAPCELL_ROW_79_1199 VGND VPWR sky130_fd_sc_hd__tapvpwrvgnd_1
X_5589_ _1398_ _1399_ VGND VGND VPWR VPWR _1400_ sky130_fd_sc_hd__nor2_1
XFILLER_104_433 VGND VGND VPWR VPWR sky130_fd_sc_hd__decap_8
XTAP_TAPCELL_ROW_92_1355 VGND VPWR sky130_fd_sc_hd__tapvpwrvgnd_1
XFILLER_77_15 VPWR VGND VPWR VGND sky130_ef_sc_hd__decap_12
XFILLER_104_477 VGND VGND VPWR VPWR sky130_fd_sc_hd__decap_8
XTAP_TAPCELL_ROW_5_310 VGND VPWR sky130_fd_sc_hd__tapvpwrvgnd_1
XFILLER_92_309 VGND VGND VPWR VPWR sky130_fd_sc_hd__decap_3
XPHY_EDGE_ROW_116_Left_233 VGND VGND VPWR VPWR sky130_fd_sc_hd__decap_3
XFILLER_73_534 VGND VGND VPWR VPWR sky130_fd_sc_hd__decap_4
XFILLER_45_225 VGND VGND VPWR VPWR sky130_fd_sc_hd__decap_8
XFILLER_93_69 VPWR VGND VPWR VGND sky130_ef_sc_hd__decap_12
XFILLER_26_41 VPWR VGND VPWR VGND sky130_ef_sc_hd__decap_12
XFILLER_14_601 VPWR VGND VPWR VGND sky130_ef_sc_hd__decap_12
XFILLER_14_645 VPWR VGND VPWR VGND sky130_ef_sc_hd__decap_12
XFILLER_26_85 VPWR VGND VPWR VGND sky130_ef_sc_hd__decap_12
XFILLER_41_420 VPWR VGND VPWR VGND sky130_ef_sc_hd__decap_12
XFILLER_41_442 VGND VGND VPWR VPWR sky130_fd_sc_hd__fill_1
XFILLER_14_689 VGND VGND VPWR VPWR sky130_fd_sc_hd__decap_3
XTAP_TAPCELL_ROW_101_1462 VGND VPWR sky130_fd_sc_hd__tapvpwrvgnd_1
XFILLER_41_497 VGND VGND VPWR VPWR sky130_fd_sc_hd__decap_6
XFILLER_42_62 VGND VGND VPWR VPWR sky130_fd_sc_hd__decap_4
XFILLER_9_159 VGND VGND VPWR VPWR sky130_fd_sc_hd__decap_8
XTAP_TAPCELL_ROW_11_389 VGND VPWR sky130_fd_sc_hd__tapvpwrvgnd_1
XTAP_TAPCELL_ROW_11_378 VGND VPWR sky130_fd_sc_hd__tapvpwrvgnd_1
XFILLER_5_321 VGND VGND VPWR VPWR sky130_fd_sc_hd__decap_3
XFILLER_96_637 VGND VGND VPWR VPWR sky130_fd_sc_hd__decap_6
XTAP_TAPCELL_ROW_112_1591 VGND VPWR sky130_fd_sc_hd__tapvpwrvgnd_1
XFILLER_68_339 VPWR VGND VPWR VGND sky130_ef_sc_hd__decap_12
XFILLER_3_89 VGND VGND VPWR VPWR sky130_fd_sc_hd__fill_1
XFILLER_95_169 VGND VGND VPWR VPWR sky130_fd_sc_hd__decap_3
XFILLER_95_158 VGND VGND VPWR VPWR sky130_fd_sc_hd__decap_8
XFILLER_67_92 VPWR VGND VPWR VGND sky130_ef_sc_hd__decap_12
XFILLER_64_501 VGND VGND VPWR VPWR sky130_fd_sc_hd__decap_4
XFILLER_49_597 VGND VGND VPWR VPWR sky130_fd_sc_hd__decap_6
XFILLER_91_331 VGND VGND VPWR VPWR sky130_fd_sc_hd__decap_4
X_4960_ net410 net334 net328 net418 VGND VGND VPWR VPWR _0718_ sky130_fd_sc_hd__a22o_1
XFILLER_83_80 VPWR VGND VPWR VGND sky130_ef_sc_hd__decap_12
XFILLER_64_589 VPWR VGND VPWR VGND sky130_ef_sc_hd__decap_12
XTAP_TAPCELL_ROW_19_478 VGND VPWR sky130_fd_sc_hd__tapvpwrvgnd_1
XFILLER_51_228 VGND VGND VPWR VPWR sky130_fd_sc_hd__decap_8
X_4891_ net227 net387 net313 net240 VGND VGND VPWR VPWR _0650_ sky130_fd_sc_hd__a22o_1
X_3911_ net138 _3094_ _3102_ VGND VGND VPWR VPWR _3103_ sky130_fd_sc_hd__a21oi_1
X_3842_ _3027_ _3029_ net127 VGND VGND VPWR VPWR _3037_ sky130_fd_sc_hd__o21a_1
X_6630_ _2533_ _2534_ VGND VGND VPWR VPWR _2535_ sky130_fd_sc_hd__nor2_1
XFILLER_20_637 VGND VGND VPWR VPWR sky130_fd_sc_hd__decap_6
X_6561_ _2450_ _2459_ VGND VGND VPWR VPWR _2461_ sky130_fd_sc_hd__xnor2_1
XTAP_TAPCELL_ROW_30_610 VGND VPWR sky130_fd_sc_hd__tapvpwrvgnd_1
X_3773_ _2965_ _2969_ _2970_ VGND VGND VPWR VPWR _2971_ sky130_fd_sc_hd__o21ba_1
X_5512_ _1191_ _1314_ _1315_ VGND VGND VPWR VPWR _1316_ sky130_fd_sc_hd__nand3_2
XFILLER_9_671 VGND VGND VPWR VPWR sky130_fd_sc_hd__fill_1
X_6492_ net448 net185 net340 net460 VGND VGND VPWR VPWR _2385_ sky130_fd_sc_hd__a22oi_1
X_5443_ _1237_ _1238_ _1234_ VGND VGND VPWR VPWR _1240_ sky130_fd_sc_hd__a21o_1
X_5374_ _1049_ _1051_ _1050_ VGND VGND VPWR VPWR _1165_ sky130_fd_sc_hd__a21bo_1
X_4325_ net249 net414 VGND VGND VPWR VPWR _0094_ sky130_fd_sc_hd__nand2_1
XFILLER_99_431 VGND VGND VPWR VPWR sky130_fd_sc_hd__fill_1
XFILLER_101_414 VGND VGND VPWR VPWR sky130_fd_sc_hd__fill_2
XFILLER_87_615 VGND VGND VPWR VPWR sky130_fd_sc_hd__fill_1
Xfanout127 _1876_ VGND VGND VPWR VPWR net127 sky130_fd_sc_hd__clkbuf_4
Xfanout138 _1059_ VGND VGND VPWR VPWR net138 sky130_fd_sc_hd__clkbuf_4
XFILLER_59_317 VPWR VGND VPWR VGND sky130_ef_sc_hd__decap_12
XFILLER_59_306 VGND VGND VPWR VPWR sky130_fd_sc_hd__decap_3
XFILLER_101_447 VGND VGND VPWR VPWR sky130_fd_sc_hd__fill_1
Xfanout149 _0045_ VGND VGND VPWR VPWR net149 sky130_fd_sc_hd__buf_4
X_4256_ _0029_ _0030_ VGND VGND VPWR VPWR _0031_ sky130_fd_sc_hd__or2_1
XFILLER_74_309 VPWR VGND VPWR VGND sky130_ef_sc_hd__decap_12
X_4187_ _3021_ _3134_ VGND VGND VPWR VPWR _3367_ sky130_fd_sc_hd__nand2_1
XTAP_TAPCELL_ROW_38_710 VGND VPWR sky130_fd_sc_hd__tapvpwrvgnd_1
XFILLER_103_57 VPWR VGND VPWR VGND sky130_ef_sc_hd__decap_12
XFILLER_55_545 VGND VGND VPWR VPWR sky130_fd_sc_hd__fill_1
XFILLER_27_236 VPWR VGND VPWR VGND sky130_ef_sc_hd__decap_12
XFILLER_23_420 VGND VGND VPWR VPWR sky130_fd_sc_hd__fill_2
XFILLER_35_291 VPWR VGND VPWR VGND sky130_ef_sc_hd__decap_12
XFILLER_11_615 VGND VGND VPWR VPWR sky130_fd_sc_hd__fill_1
X_6828_ net258 net301 _2527_ _2528_ net297 VGND VGND VPWR VPWR _2752_ sky130_fd_sc_hd__a32o_1
X_6759_ net222 net428 net427 net234 VGND VGND VPWR VPWR _2676_ sky130_fd_sc_hd__a22o_1
XFILLER_6_129 VGND VGND VPWR VPWR sky130_fd_sc_hd__decap_8
XFILLER_104_230 VGND VGND VPWR VPWR sky130_fd_sc_hd__decap_4
XFILLER_2_324 VGND VGND VPWR VPWR sky130_fd_sc_hd__decap_8
XFILLER_2_346 VGND VGND VPWR VPWR sky130_fd_sc_hd__fill_1
XFILLER_2_357 VGND VGND VPWR VPWR sky130_fd_sc_hd__fill_1
XFILLER_104_274 VGND VGND VPWR VPWR sky130_fd_sc_hd__decap_4
XFILLER_78_637 VGND VGND VPWR VPWR sky130_fd_sc_hd__decap_6
XFILLER_77_125 VGND VGND VPWR VPWR sky130_fd_sc_hd__fill_1
XFILLER_93_629 VPWR VGND VPWR VGND sky130_ef_sc_hd__decap_12
XFILLER_92_117 VGND VGND VPWR VPWR sky130_fd_sc_hd__decap_3
XFILLER_86_681 VGND VGND VPWR VPWR sky130_fd_sc_hd__decap_8
XFILLER_18_225 VGND VGND VPWR VPWR sky130_fd_sc_hd__decap_3
XFILLER_37_51 VGND VGND VPWR VPWR sky130_fd_sc_hd__decap_4
XFILLER_46_523 VGND VGND VPWR VPWR sky130_fd_sc_hd__decap_8
XFILLER_46_545 VPWR VGND VPWR VGND sky130_ef_sc_hd__decap_12
XFILLER_46_567 VPWR VGND VPWR VGND sky130_ef_sc_hd__decap_12
XFILLER_46_589 VGND VGND VPWR VPWR sky130_fd_sc_hd__decap_3
XFILLER_61_559 VGND VGND VPWR VPWR sky130_fd_sc_hd__fill_1
XTAP_TAPCELL_ROW_16_448 VGND VPWR sky130_fd_sc_hd__tapvpwrvgnd_1
XFILLER_14_442 VGND VGND VPWR VPWR sky130_fd_sc_hd__fill_2
XFILLER_14_453 VGND VGND VPWR VPWR sky130_fd_sc_hd__fill_2
XFILLER_14_464 VGND VGND VPWR VPWR sky130_fd_sc_hd__decap_6
XTAP_TAPCELL_ROW_44_779 VGND VPWR sky130_fd_sc_hd__tapvpwrvgnd_1
XFILLER_53_61 VGND VGND VPWR VPWR sky130_fd_sc_hd__fill_1
XFILLER_41_261 VPWR VGND VPWR VGND sky130_ef_sc_hd__decap_12
XFILLER_10_681 VGND VGND VPWR VPWR sky130_fd_sc_hd__decap_8
XFILLER_115_517 VPWR VGND VPWR VGND sky130_ef_sc_hd__decap_12
XTAP_TAPCELL_ROW_114_1620 VGND VPWR sky130_fd_sc_hd__tapvpwrvgnd_1
X_5090_ _0850_ _0854_ _0855_ VGND VGND VPWR VPWR _0856_ sky130_fd_sc_hd__nand3_2
X_4110_ _3247_ _3269_ VGND VGND VPWR VPWR _3293_ sky130_fd_sc_hd__nor2_1
XFILLER_56_309 VGND VGND VPWR VPWR sky130_fd_sc_hd__decap_4
X_4041_ net445 net271 VGND VGND VPWR VPWR _3227_ sky130_fd_sc_hd__or2_1
XFILLER_49_361 VGND VGND VPWR VPWR sky130_fd_sc_hd__decap_4
XFILLER_37_556 VGND VGND VPWR VPWR sky130_fd_sc_hd__decap_4
XFILLER_37_567 VGND VGND VPWR VPWR sky130_fd_sc_hd__fill_1
XFILLER_52_504 VPWR VGND VPWR VGND sky130_ef_sc_hd__decap_12
X_5992_ _1818_ _1835_ _1836_ VGND VGND VPWR VPWR _1839_ sky130_fd_sc_hd__nand3_1
X_4943_ _0614_ _0695_ _0694_ VGND VGND VPWR VPWR _0701_ sky130_fd_sc_hd__a21oi_2
XTAP_TAPCELL_ROW_65_1029 VGND VPWR sky130_fd_sc_hd__tapvpwrvgnd_1
X_4874_ _0631_ _0632_ _0630_ VGND VGND VPWR VPWR _0633_ sky130_fd_sc_hd__a21o_1
XFILLER_60_570 VGND VGND VPWR VPWR sky130_fd_sc_hd__fill_2
X_6613_ _2514_ _2515_ VGND VGND VPWR VPWR _2516_ sky130_fd_sc_hd__xnor2_1
X_3825_ net153 _3019_ _3020_ VGND VGND VPWR VPWR _3021_ sky130_fd_sc_hd__a21o_1
XFILLER_20_445 VGND VGND VPWR VPWR sky130_fd_sc_hd__decap_8
X_3756_ _1397_ _1703_ net155 VGND VGND VPWR VPWR _2955_ sky130_fd_sc_hd__mux2_1
X_6544_ _2439_ _2440_ VGND VGND VPWR VPWR _2442_ sky130_fd_sc_hd__xor2_1
X_6475_ _2364_ _2365_ VGND VGND VPWR VPWR _2366_ sky130_fd_sc_hd__nor2_1
XTAP_TAPCELL_ROW_76_1158 VGND VPWR sky130_fd_sc_hd__tapvpwrvgnd_1
X_3687_ net232 _2888_ VGND VGND VPWR VPWR _2889_ sky130_fd_sc_hd__nor2_1
X_5426_ _1219_ _1220_ VGND VGND VPWR VPWR _1221_ sky130_fd_sc_hd__and2_1
XTAP_TAPCELL_ROW_76_1169 VGND VPWR sky130_fd_sc_hd__tapvpwrvgnd_1
XFILLER_99_261 VPWR VGND VPWR VGND sky130_ef_sc_hd__decap_12
XFILLER_87_401 VGND VGND VPWR VPWR sky130_fd_sc_hd__fill_2
X_5357_ net421 net300 net295 net459 VGND VGND VPWR VPWR _1147_ sky130_fd_sc_hd__a22o_1
X_4308_ _0075_ _0076_ _0057_ VGND VGND VPWR VPWR _0078_ sky130_fd_sc_hd__a21o_1
X_5288_ _0963_ _1069_ VGND VGND VPWR VPWR _1072_ sky130_fd_sc_hd__xnor2_1
XFILLER_101_233 VGND VGND VPWR VPWR sky130_fd_sc_hd__fill_2
XFILLER_75_629 VPWR VGND VPWR VGND sky130_ef_sc_hd__decap_12
XFILLER_59_169 VGND VGND VPWR VPWR sky130_fd_sc_hd__decap_8
XFILLER_59_158 VGND VGND VPWR VPWR sky130_fd_sc_hd__decap_3
X_4239_ _0906_ net54 _0014_ VGND VGND VPWR VPWR _0015_ sky130_fd_sc_hd__o21a_1
XFILLER_101_277 VGND VGND VPWR VPWR sky130_fd_sc_hd__decap_3
XFILLER_74_139 VGND VGND VPWR VPWR sky130_fd_sc_hd__fill_1
XFILLER_68_681 VGND VGND VPWR VPWR sky130_fd_sc_hd__decap_4
XFILLER_74_27 VGND VGND VPWR VPWR sky130_fd_sc_hd__fill_1
XFILLER_28_556 VPWR VGND VPWR VGND sky130_ef_sc_hd__decap_12
XFILLER_83_673 VPWR VGND VPWR VGND sky130_ef_sc_hd__decap_12
XFILLER_28_589 VPWR VGND VPWR VGND sky130_ef_sc_hd__decap_12
XTAP_TAPCELL_ROW_87_1298 VGND VPWR sky130_fd_sc_hd__tapvpwrvgnd_1
XFILLER_90_15 VPWR VGND VPWR VGND sky130_ef_sc_hd__decap_12
XFILLER_30_209 VGND VGND VPWR VPWR sky130_fd_sc_hd__decap_6
XFILLER_90_48 VGND VGND VPWR VPWR sky130_fd_sc_hd__fill_1
XFILLER_11_412 VPWR VGND VPWR VGND sky130_ef_sc_hd__decap_12
XTAP_TAPCELL_ROW_13_407 VGND VPWR sky130_fd_sc_hd__tapvpwrvgnd_1
XFILLER_23_272 VGND VGND VPWR VPWR sky130_fd_sc_hd__decap_8
XTAP_TAPCELL_ROW_41_738 VGND VPWR sky130_fd_sc_hd__tapvpwrvgnd_1
XTAP_TAPCELL_ROW_41_749 VGND VPWR sky130_fd_sc_hd__tapvpwrvgnd_1
XFILLER_11_478 VGND VGND VPWR VPWR sky130_fd_sc_hd__decap_8
XFILLER_109_377 VPWR VGND VPWR VGND sky130_ef_sc_hd__decap_12
XFILLER_105_561 VPWR VGND VPWR VGND sky130_ef_sc_hd__decap_12
XFILLER_93_404 VGND VGND VPWR VPWR sky130_fd_sc_hd__decap_4
XFILLER_38_309 VGND VGND VPWR VPWR sky130_fd_sc_hd__decap_4
XFILLER_48_50 VPWR VGND VPWR VGND sky130_ef_sc_hd__decap_12
XFILLER_78_489 VPWR VGND VPWR VGND sky130_ef_sc_hd__decap_12
XFILLER_48_83 VGND VGND VPWR VPWR sky130_fd_sc_hd__fill_1
XTAP_TAPCELL_ROW_49_838 VGND VPWR sky130_fd_sc_hd__tapvpwrvgnd_1
XFILLER_0_57 VGND VGND VPWR VPWR sky130_fd_sc_hd__decap_4
XFILLER_0_79 VGND VGND VPWR VPWR sky130_fd_sc_hd__decap_4
XTAP_TAPCELL_ROW_29_595 VGND VPWR sky130_fd_sc_hd__tapvpwrvgnd_1
XFILLER_9_55 VGND VGND VPWR VPWR sky130_fd_sc_hd__fill_1
X_4590_ _0310_ _0311_ _0322_ _0352_ VGND VGND VPWR VPWR _0353_ sky130_fd_sc_hd__a31o_1
XPHY_EDGE_ROW_104_Right_104 VGND VGND VPWR VPWR sky130_fd_sc_hd__decap_3
X_3610_ _2739_ _2799_ _2813_ VGND VGND VPWR VPWR _2814_ sky130_fd_sc_hd__o21ai_1
XFILLER_80_92 VPWR VGND VPWR VGND sky130_ef_sc_hd__decap_12
X_3541_ _2193_ _2237_ net244 VGND VGND VPWR VPWR _2248_ sky130_fd_sc_hd__mux2_1
XFILLER_115_303 VGND VGND VPWR VPWR sky130_fd_sc_hd__decap_3
XFILLER_6_460 VPWR VGND VPWR VGND sky130_ef_sc_hd__decap_12
X_3472_ net164 net24 _1484_ VGND VGND VPWR VPWR _1495_ sky130_fd_sc_hd__a21bo_1
XFILLER_6_493 VGND VGND VPWR VPWR sky130_fd_sc_hd__decap_6
X_6260_ net449 net446 net205 net198 VGND VGND VPWR VPWR _2132_ sky130_fd_sc_hd__and4_1
XFILLER_89_90 VPWR VGND VPWR VGND sky130_ef_sc_hd__decap_12
XFILLER_88_209 VGND VGND VPWR VPWR sky130_fd_sc_hd__fill_1
X_5211_ _0844_ _0846_ _0986_ _0987_ VGND VGND VPWR VPWR _0988_ sky130_fd_sc_hd__o211ai_4