* NGSPICE file created from riscv_top_synth.ext - technology: sky130A

* Black-box entry subcircuit for sky130_fd_sc_hd__fill_4 abstract view
.subckt sky130_fd_sc_hd__fill_4 VGND VNB VPB VPWR
.ends

* Black-box entry subcircuit for sky130_fd_sc_hd__o211ai_1 abstract view
.subckt sky130_fd_sc_hd__o211ai_1 A1 A2 B1 C1 VGND VNB VPB VPWR Y
.ends

* Black-box entry subcircuit for sky130_fd_sc_hd__nand2_1 abstract view
.subckt sky130_fd_sc_hd__nand2_1 A B VGND VNB VPB VPWR Y
.ends

* Black-box entry subcircuit for sky130_fd_sc_hd__fill_1 abstract view
.subckt sky130_fd_sc_hd__fill_1 VGND VNB VPB VPWR
.ends

* Black-box entry subcircuit for sky130_fd_sc_hd__and2_0 abstract view
.subckt sky130_fd_sc_hd__and2_0 A B VGND VNB VPB VPWR X
.ends

* Black-box entry subcircuit for sky130_fd_sc_hd__fill_8 abstract view
.subckt sky130_fd_sc_hd__fill_8 VGND VNB VPB VPWR
.ends

* Black-box entry subcircuit for sky130_fd_sc_hd__mux2_1 abstract view
.subckt sky130_fd_sc_hd__mux2_1 A0 A1 S VGND VNB VPB VPWR X
.ends

* Black-box entry subcircuit for sky130_fd_sc_hd__o31ai_1 abstract view
.subckt sky130_fd_sc_hd__o31ai_1 A1 A2 A3 B1 VGND VNB VPB VPWR Y
.ends

* Black-box entry subcircuit for sky130_fd_sc_hd__fill_2 abstract view
.subckt sky130_fd_sc_hd__fill_2 VGND VNB VPB VPWR
.ends

* Black-box entry subcircuit for sky130_fd_sc_hd__and4b_1 abstract view
.subckt sky130_fd_sc_hd__and4b_1 A_N B C D VGND VNB VPB VPWR X
.ends

* Black-box entry subcircuit for sky130_fd_sc_hd__tapvpwrvgnd_1 abstract view
.subckt sky130_fd_sc_hd__tapvpwrvgnd_1 VGND VPWR
.ends

* Black-box entry subcircuit for sky130_fd_sc_hd__o21ai_0 abstract view
.subckt sky130_fd_sc_hd__o21ai_0 A1 A2 B1 VGND VNB VPB VPWR Y
.ends

* Black-box entry subcircuit for sky130_fd_sc_hd__a31o_1 abstract view
.subckt sky130_fd_sc_hd__a31o_1 A1 A2 A3 B1 VGND VNB VPB VPWR X
.ends

* Black-box entry subcircuit for sky130_fd_sc_hd__o311ai_0 abstract view
.subckt sky130_fd_sc_hd__o311ai_0 A1 A2 A3 B1 C1 VGND VNB VPB VPWR Y
.ends

* Black-box entry subcircuit for sky130_fd_sc_hd__xnor2_1 abstract view
.subckt sky130_fd_sc_hd__xnor2_1 A B VGND VNB VPB VPWR Y
.ends

* Black-box entry subcircuit for sky130_fd_sc_hd__a21oi_1 abstract view
.subckt sky130_fd_sc_hd__a21oi_1 A1 A2 B1 VGND VNB VPB VPWR Y
.ends

* Black-box entry subcircuit for sky130_fd_sc_hd__lpflow_inputiso1p_1 abstract view
.subckt sky130_fd_sc_hd__lpflow_inputiso1p_1 A SLEEP VGND VNB VPB VPWR X
.ends

* Black-box entry subcircuit for sky130_fd_sc_hd__a22o_1 abstract view
.subckt sky130_fd_sc_hd__a22o_1 A1 A2 B1 B2 VGND VNB VPB VPWR X
.ends

* Black-box entry subcircuit for sky130_fd_sc_hd__mux2i_1 abstract view
.subckt sky130_fd_sc_hd__mux2i_1 A0 A1 S VGND VNB VPB VPWR Y
.ends

* Black-box entry subcircuit for sky130_fd_sc_hd__clkbuf_4 abstract view
.subckt sky130_fd_sc_hd__clkbuf_4 A VGND VNB VPB VPWR X
.ends

* Black-box entry subcircuit for sky130_fd_sc_hd__dfxtp_1 abstract view
.subckt sky130_fd_sc_hd__dfxtp_1 CLK D VGND VNB VPB VPWR Q
.ends

* Black-box entry subcircuit for sky130_fd_sc_hd__nor2_1 abstract view
.subckt sky130_fd_sc_hd__nor2_1 A B VGND VNB VPB VPWR Y
.ends

* Black-box entry subcircuit for sky130_fd_sc_hd__mux4_2 abstract view
.subckt sky130_fd_sc_hd__mux4_2 A0 A1 A2 A3 S0 S1 VGND VNB VPB VPWR X
.ends

* Black-box entry subcircuit for sky130_fd_sc_hd__and3_1 abstract view
.subckt sky130_fd_sc_hd__and3_1 A B C VGND VNB VPB VPWR X
.ends

* Black-box entry subcircuit for sky130_fd_sc_hd__maj3_1 abstract view
.subckt sky130_fd_sc_hd__maj3_1 A B C VGND VNB VPB VPWR X
.ends

* Black-box entry subcircuit for sky130_fd_sc_hd__dfrtp_1 abstract view
.subckt sky130_fd_sc_hd__dfrtp_1 CLK D RESET_B VGND VNB VPB VPWR Q
.ends

* Black-box entry subcircuit for sky130_fd_sc_hd__o2bb2ai_1 abstract view
.subckt sky130_fd_sc_hd__o2bb2ai_1 A1_N A2_N B1 B2 VGND VNB VPB VPWR Y
.ends

* Black-box entry subcircuit for sky130_fd_sc_hd__xor2_1 abstract view
.subckt sky130_fd_sc_hd__xor2_1 A B VGND VNB VPB VPWR X
.ends

* Black-box entry subcircuit for sky130_fd_sc_hd__nand3b_1 abstract view
.subckt sky130_fd_sc_hd__nand3b_1 A_N B C VGND VNB VPB VPWR Y
.ends

* Black-box entry subcircuit for sky130_fd_sc_hd__a311oi_1 abstract view
.subckt sky130_fd_sc_hd__a311oi_1 A1 A2 A3 B1 C1 VGND VNB VPB VPWR Y
.ends

* Black-box entry subcircuit for sky130_fd_sc_hd__buf_1 abstract view
.subckt sky130_fd_sc_hd__buf_1 A VGND VNB VPB VPWR X
.ends

* Black-box entry subcircuit for sky130_fd_sc_hd__o22ai_1 abstract view
.subckt sky130_fd_sc_hd__o22ai_1 A1 A2 B1 B2 VGND VNB VPB VPWR Y
.ends

* Black-box entry subcircuit for sky130_fd_sc_hd__nand2b_1 abstract view
.subckt sky130_fd_sc_hd__nand2b_1 A_N B VGND VNB VPB VPWR Y
.ends

* Black-box entry subcircuit for sky130_fd_sc_hd__a221oi_1 abstract view
.subckt sky130_fd_sc_hd__a221oi_1 A1 A2 B1 B2 C1 VGND VNB VPB VPWR Y
.ends

* Black-box entry subcircuit for sky130_fd_sc_hd__clkinv_1 abstract view
.subckt sky130_fd_sc_hd__clkinv_1 A VGND VNB VPB VPWR Y
.ends

* Black-box entry subcircuit for sky130_fd_sc_hd__a31oi_1 abstract view
.subckt sky130_fd_sc_hd__a31oi_1 A1 A2 A3 B1 VGND VNB VPB VPWR Y
.ends

* Black-box entry subcircuit for sky130_fd_sc_hd__lpflow_isobufsrc_1 abstract view
.subckt sky130_fd_sc_hd__lpflow_isobufsrc_1 A SLEEP VGND VNB VPB VPWR X
.ends

* Black-box entry subcircuit for sky130_fd_sc_hd__and3b_1 abstract view
.subckt sky130_fd_sc_hd__and3b_1 A_N B C VGND VNB VPB VPWR X
.ends

* Black-box entry subcircuit for sky130_fd_sc_hd__clkbuf_1 abstract view
.subckt sky130_fd_sc_hd__clkbuf_1 A VGND VNB VPB VPWR X
.ends

* Black-box entry subcircuit for sky130_fd_sc_hd__a211oi_1 abstract view
.subckt sky130_fd_sc_hd__a211oi_1 A1 A2 B1 C1 VGND VNB VPB VPWR Y
.ends

* Black-box entry subcircuit for sky130_fd_sc_hd__or3_1 abstract view
.subckt sky130_fd_sc_hd__or3_1 A B C VGND VNB VPB VPWR X
.ends

* Black-box entry subcircuit for sky130_fd_sc_hd__nand4_1 abstract view
.subckt sky130_fd_sc_hd__nand4_1 A B C D VGND VNB VPB VPWR Y
.ends

* Black-box entry subcircuit for sky130_fd_sc_hd__o21bai_1 abstract view
.subckt sky130_fd_sc_hd__o21bai_1 A1 A2 B1_N VGND VNB VPB VPWR Y
.ends

* Black-box entry subcircuit for sky130_fd_sc_hd__nor2b_1 abstract view
.subckt sky130_fd_sc_hd__nor2b_1 A B_N VGND VNB VPB VPWR Y
.ends

* Black-box entry subcircuit for sky130_fd_sc_hd__a2111oi_0 abstract view
.subckt sky130_fd_sc_hd__a2111oi_0 A1 A2 B1 C1 D1 VGND VNB VPB VPWR Y
.ends

* Black-box entry subcircuit for sky130_fd_sc_hd__a222oi_1 abstract view
.subckt sky130_fd_sc_hd__a222oi_1 A1 A2 B1 B2 C1 C2 VGND VNB VPB VPWR Y
.ends

* Black-box entry subcircuit for sky130_fd_sc_hd__xnor3_1 abstract view
.subckt sky130_fd_sc_hd__xnor3_1 A B C VGND VNB VPB VPWR X
.ends

* Black-box entry subcircuit for sky130_fd_sc_hd__nor3_1 abstract view
.subckt sky130_fd_sc_hd__nor3_1 A B C VGND VNB VPB VPWR Y
.ends

* Black-box entry subcircuit for sky130_fd_sc_hd__xor3_1 abstract view
.subckt sky130_fd_sc_hd__xor3_1 A B C VGND VNB VPB VPWR X
.ends

* Black-box entry subcircuit for sky130_fd_sc_hd__a21o_1 abstract view
.subckt sky130_fd_sc_hd__a21o_1 A1 A2 B1 VGND VNB VPB VPWR X
.ends

* Black-box entry subcircuit for sky130_fd_sc_hd__or3b_1 abstract view
.subckt sky130_fd_sc_hd__or3b_1 A B C_N VGND VNB VPB VPWR X
.ends

* Black-box entry subcircuit for sky130_fd_sc_hd__o21a_1 abstract view
.subckt sky130_fd_sc_hd__o21a_1 A1 A2 B1 VGND VNB VPB VPWR X
.ends

* Black-box entry subcircuit for sky130_fd_sc_hd__a2bb2oi_1 abstract view
.subckt sky130_fd_sc_hd__a2bb2oi_1 A1_N A2_N B1 B2 VGND VNB VPB VPWR Y
.ends

* Black-box entry subcircuit for sky130_fd_sc_hd__nor3b_1 abstract view
.subckt sky130_fd_sc_hd__nor3b_1 A B C_N VGND VNB VPB VPWR Y
.ends

* Black-box entry subcircuit for sky130_fd_sc_hd__nand3_1 abstract view
.subckt sky130_fd_sc_hd__nand3_1 A B C VGND VNB VPB VPWR Y
.ends

* Black-box entry subcircuit for sky130_fd_sc_hd__a22oi_1 abstract view
.subckt sky130_fd_sc_hd__a22oi_1 A1 A2 B1 B2 VGND VNB VPB VPWR Y
.ends

* Black-box entry subcircuit for sky130_fd_sc_hd__o221ai_1 abstract view
.subckt sky130_fd_sc_hd__o221ai_1 A1 A2 B1 B2 C1 VGND VNB VPB VPWR Y
.ends

* Black-box entry subcircuit for sky130_fd_sc_hd__clkinv_2 abstract view
.subckt sky130_fd_sc_hd__clkinv_2 A VGND VNB VPB VPWR Y
.ends

* Black-box entry subcircuit for sky130_fd_sc_hd__o211a_1 abstract view
.subckt sky130_fd_sc_hd__o211a_1 A1 A2 B1 C1 VGND VNB VPB VPWR X
.ends

* Black-box entry subcircuit for sky130_fd_sc_hd__a21bo_1 abstract view
.subckt sky130_fd_sc_hd__a21bo_1 A1 A2 B1_N VGND VNB VPB VPWR X
.ends

* Black-box entry subcircuit for sky130_fd_sc_hd__bufinv_16 abstract view
.subckt sky130_fd_sc_hd__bufinv_16 A VGND VNB VPB VPWR Y
.ends

* Black-box entry subcircuit for sky130_fd_sc_hd__o31a_1 abstract view
.subckt sky130_fd_sc_hd__o31a_1 A1 A2 A3 B1 VGND VNB VPB VPWR X
.ends

* Black-box entry subcircuit for sky130_fd_sc_hd__a21boi_0 abstract view
.subckt sky130_fd_sc_hd__a21boi_0 A1 A2 B1_N VGND VNB VPB VPWR Y
.ends

* Black-box entry subcircuit for sky130_fd_sc_hd__nand4bb_1 abstract view
.subckt sky130_fd_sc_hd__nand4bb_1 A_N B_N C D VGND VNB VPB VPWR Y
.ends

* Black-box entry subcircuit for sky130_fd_sc_hd__clkinvlp_4 abstract view
.subckt sky130_fd_sc_hd__clkinvlp_4 A VGND VNB VPB VPWR Y
.ends

* Black-box entry subcircuit for sky130_fd_sc_hd__nor4bb_1 abstract view
.subckt sky130_fd_sc_hd__nor4bb_1 A B C_N D_N VGND VNB VPB VPWR Y
.ends

* Black-box entry subcircuit for sky130_fd_sc_hd__nor4_1 abstract view
.subckt sky130_fd_sc_hd__nor4_1 A B C D VGND VNB VPB VPWR Y
.ends

* Black-box entry subcircuit for sky130_fd_sc_hd__o22a_1 abstract view
.subckt sky130_fd_sc_hd__o22a_1 A1 A2 B1 B2 VGND VNB VPB VPWR X
.ends

* Black-box entry subcircuit for sky130_fd_sc_hd__o32ai_1 abstract view
.subckt sky130_fd_sc_hd__o32ai_1 A1 A2 A3 B1 B2 VGND VNB VPB VPWR Y
.ends

* Black-box entry subcircuit for sky130_fd_sc_hd__a221o_1 abstract view
.subckt sky130_fd_sc_hd__a221o_1 A1 A2 B1 B2 C1 VGND VNB VPB VPWR X
.ends

* Black-box entry subcircuit for sky130_fd_sc_hd__a311o_1 abstract view
.subckt sky130_fd_sc_hd__a311o_1 A1 A2 A3 B1 C1 VGND VNB VPB VPWR X
.ends

* Black-box entry subcircuit for sky130_fd_sc_hd__nand4b_1 abstract view
.subckt sky130_fd_sc_hd__nand4b_1 A_N B C D VGND VNB VPB VPWR Y
.ends

* Black-box entry subcircuit for sky130_fd_sc_hd__and4_1 abstract view
.subckt sky130_fd_sc_hd__and4_1 A B C D VGND VNB VPB VPWR X
.ends

* Black-box entry subcircuit for sky130_fd_sc_hd__a211o_1 abstract view
.subckt sky130_fd_sc_hd__a211o_1 A1 A2 B1 C1 VGND VNB VPB VPWR X
.ends

* Black-box entry subcircuit for sky130_fd_sc_hd__o21ba_1 abstract view
.subckt sky130_fd_sc_hd__o21ba_1 A1 A2 B1_N VGND VNB VPB VPWR X
.ends

* Black-box entry subcircuit for sky130_fd_sc_hd__a32o_1 abstract view
.subckt sky130_fd_sc_hd__a32o_1 A1 A2 A3 B1 B2 VGND VNB VPB VPWR X
.ends

* Black-box entry subcircuit for sky130_fd_sc_hd__o221a_1 abstract view
.subckt sky130_fd_sc_hd__o221a_1 A1 A2 B1 B2 C1 VGND VNB VPB VPWR X
.ends

* Black-box entry subcircuit for sky130_fd_sc_hd__o41ai_1 abstract view
.subckt sky130_fd_sc_hd__o41ai_1 A1 A2 A3 A4 B1 VGND VNB VPB VPWR Y
.ends

* Black-box entry subcircuit for sky130_fd_sc_hd__o311a_1 abstract view
.subckt sky130_fd_sc_hd__o311a_1 A1 A2 A3 B1 C1 VGND VNB VPB VPWR X
.ends

* Black-box entry subcircuit for sky130_fd_sc_hd__o2111ai_1 abstract view
.subckt sky130_fd_sc_hd__o2111ai_1 A1 A2 B1 C1 D1 VGND VNB VPB VPWR Y
.ends

* Black-box entry subcircuit for sky130_fd_sc_hd__o41a_1 abstract view
.subckt sky130_fd_sc_hd__o41a_1 A1 A2 A3 A4 B1 VGND VNB VPB VPWR X
.ends

* Black-box entry subcircuit for sky130_fd_sc_hd__nor4b_1 abstract view
.subckt sky130_fd_sc_hd__nor4b_1 A B C D_N VGND VNB VPB VPWR Y
.ends

* Black-box entry subcircuit for sky130_fd_sc_hd__a32oi_1 abstract view
.subckt sky130_fd_sc_hd__a32oi_1 A1 A2 A3 B1 B2 VGND VNB VPB VPWR Y
.ends

* Black-box entry subcircuit for sky130_fd_sc_hd__or4b_1 abstract view
.subckt sky130_fd_sc_hd__or4b_1 A B C D_N VGND VNB VPB VPWR X
.ends

* Black-box entry subcircuit for sky130_fd_sc_hd__o32a_1 abstract view
.subckt sky130_fd_sc_hd__o32a_1 A1 A2 A3 B1 B2 VGND VNB VPB VPWR X
.ends

* Black-box entry subcircuit for sky130_fd_sc_hd__a41oi_1 abstract view
.subckt sky130_fd_sc_hd__a41oi_1 A1 A2 A3 A4 B1 VGND VNB VPB VPWR Y
.ends

* Black-box entry subcircuit for sky130_fd_sc_hd__or4_1 abstract view
.subckt sky130_fd_sc_hd__or4_1 A B C D VGND VNB VPB VPWR X
.ends

* Black-box entry subcircuit for sky130_fd_sc_hd__a2111o_1 abstract view
.subckt sky130_fd_sc_hd__a2111o_1 A1 A2 B1 C1 D1 VGND VNB VPB VPWR X
.ends

.subckt riscv_top_synth VDD VSS clk imem_addr[0] imem_addr[10] imem_addr[11] imem_addr[12]
+ imem_addr[13] imem_addr[14] imem_addr[15] imem_addr[16] imem_addr[17] imem_addr[18]
+ imem_addr[19] imem_addr[1] imem_addr[20] imem_addr[21] imem_addr[22] imem_addr[23]
+ imem_addr[24] imem_addr[25] imem_addr[26] imem_addr[27] imem_addr[28] imem_addr[29]
+ imem_addr[2] imem_addr[30] imem_addr[31] imem_addr[3] imem_addr[4] imem_addr[5]
+ imem_addr[6] imem_addr[7] imem_addr[8] imem_addr[9] imem_rdata[0] imem_rdata[10]
+ imem_rdata[11] imem_rdata[12] imem_rdata[13] imem_rdata[14] imem_rdata[15] imem_rdata[16]
+ imem_rdata[17] imem_rdata[18] imem_rdata[19] imem_rdata[1] imem_rdata[20] imem_rdata[21]
+ imem_rdata[22] imem_rdata[23] imem_rdata[24] imem_rdata[25] imem_rdata[26] imem_rdata[27]
+ imem_rdata[28] imem_rdata[29] imem_rdata[2] imem_rdata[30] imem_rdata[31] imem_rdata[3]
+ imem_rdata[4] imem_rdata[5] imem_rdata[6] imem_rdata[7] imem_rdata[8] imem_rdata[9]
+ rst_n shift sin sout tck test
XFILLER_140_296 VSS VSS VDD VDD sky130_fd_sc_hd__fill_4
X__uuf__.u_ex.u_alu._2140_ __uuf__.u_ex.u_alu._2003_/S __uuf__.u_ex.u_alu._2062_/Y
+ __uuf__.u_ex.u_alu._2139_/Y __uuf__.u_ex.u_alu._2098_/A VSS VSS VDD VDD __uuf__.u_ex.u_alu._2140_/Y
+ sky130_fd_sc_hd__o211ai_1
X__uuf__.u_ex.u_conv_pe._3037_ _3091_/A1 _3129_/A1 VSS VSS VDD VDD __uuf__.u_ex.u_conv_pe._3039_/B
+ sky130_fd_sc_hd__nand2_1
XFILLER_100_127 VSS VSS VDD VDD sky130_fd_sc_hd__fill_1
X__uuf__.u_id._107_ __uuf__.u_id._107_/A __uuf__.u_id._108_/C VSS VSS VDD VDD __uuf__._2740_/A0
+ sky130_fd_sc_hd__and2_0
XFILLER_28_929 VSS VSS VDD VDD sky130_fd_sc_hd__fill_1
XFILLER_41_1249 VSS VSS VDD VDD sky130_fd_sc_hd__fill_8
X_3155_ _3155_/A0 _3155_/A1 shift VSS VSS VDD VDD _3155_/X sky130_fd_sc_hd__mux2_1
X__uuf__.u_ex.u_alu._2071_ __uuf__.u_ex.u_alu._2058_/A __uuf__.u_ex.u_alu._2053_/A
+ __uuf__.u_ex.u_alu._2053_/B __uuf__.u_ex.u_alu._1167_/B VSS VSS VDD VDD __uuf__.u_ex.u_alu._2072_/B
+ sky130_fd_sc_hd__o31ai_1
XFILLER_27_417 VSS VSS VDD VDD sky130_fd_sc_hd__fill_2
XFILLER_55_737 VSS VSS VDD VDD sky130_fd_sc_hd__fill_2
XFILLER_67_597 VSS VSS VDD VDD sky130_fd_sc_hd__fill_2
X_2106_ _2106_/A0 _2106_/A1 shift VSS VSS VDD VDD _2106_/X sky130_fd_sc_hd__mux2_1
XFILLER_39_299 VSS VSS VDD VDD sky130_fd_sc_hd__fill_1
X_3086_ _3086_/A0 _3086_/A1 shift VSS VSS VDD VDD _3086_/X sky130_fd_sc_hd__mux2_1
X__uuf__.u_id._038_ _3229_/A1 _3232_/A1 _3231_/A1 _3230_/A1 VSS VSS VDD VDD __uuf__.u_id._051_/C
+ sky130_fd_sc_hd__and4b_1
X__uuf__.u_ex.u_conv_pe._4988_ _3073_/A1 _3125_/A1 VSS VSS VDD VDD __uuf__.u_ex.u_conv_pe._4991_/B
+ sky130_fd_sc_hd__nand2_1
XFILLER_82_556 VSS VSS VDD VDD sky130_fd_sc_hd__fill_8
XFILLER_70_707 VSS VSS VDD VDD sky130_fd_sc_hd__fill_1
X_2037_ _2037_/A0 _2037_/A1 shift VSS VSS VDD VDD _2037_/X sky130_fd_sc_hd__mux2_1
XFILLER_54_269 VSS VSS VDD VDD sky130_fd_sc_hd__fill_1
XFILLER_78_1161 VSS VSS VDD VDD sky130_fd_sc_hd__fill_8
XFILLER_23_601 VSS VSS VDD VDD sky130_fd_sc_hd__fill_8
XFILLER_35_461 VSS VSS VDD VDD sky130_fd_sc_hd__fill_8
XFILLER_36_984 VSS VSS VDD VDD sky130_fd_sc_hd__fill_4
X__uuf__.u_ex.u_conv_pe._3939_ _3084_/A1 _3121_/A1 VSS VSS VDD VDD __uuf__.u_ex.u_conv_pe._4166_/A
+ sky130_fd_sc_hd__nand2_1
XFILLER_39_1134 VSS VSS VDD VDD sky130_fd_sc_hd__fill_4
XTAP_TAPCELL_ROW_46_990 VSS VDD sky130_fd_sc_hd__tapvpwrvgnd_1
XFILLER_50_431 VSS VSS VDD VDD sky130_fd_sc_hd__fill_8
XFILLER_51_954 VSS VSS VDD VDD sky130_fd_sc_hd__fill_4
XFILLER_161_1006 VSS VSS VDD VDD sky130_fd_sc_hd__fill_2
XFILLER_168_628 VSS VSS VDD VDD sky130_fd_sc_hd__fill_2
XFILLER_39_1189 VSS VSS VDD VDD sky130_fd_sc_hd__fill_8
XFILLER_165_1197 VSS VSS VDD VDD sky130_fd_sc_hd__fill_2
X__uuf__.u_ex.u_conv_pe._5609_ _3365_/A1 __uuf__.u_ex.u_conv_pe._2828_/B rst_n VSS
+ VSS VDD VDD __uuf__.u_ex.u_conv_pe._5610_/B sky130_fd_sc_hd__o21ai_0
X__uuf__.u_ex.u_alu._1924_ __uuf__.u_ex._455_/X __uuf__.u_ex.u_alu._1923_/Y __uuf__.u_ex.u_alu._1750_/A
+ VSS VSS VDD VDD __uuf__.u_ex.u_alu._1924_/Y sky130_fd_sc_hd__o21ai_0
XFILLER_11_829 VSS VSS VDD VDD sky130_fd_sc_hd__fill_8
XFILLER_50_475 VSS VSS VDD VDD sky130_fd_sc_hd__fill_8
XFILLER_211_779 VSS VSS VDD VDD sky130_fd_sc_hd__fill_1
XFILLER_210_267 VSS VSS VDD VDD sky130_fd_sc_hd__fill_2
XFILLER_195_469 VSS VSS VDD VDD sky130_fd_sc_hd__fill_8
XFILLER_22_199 VSS VSS VDD VDD sky130_fd_sc_hd__fill_8
XFILLER_10_339 VSS VSS VDD VDD sky130_fd_sc_hd__fill_8
X_2939_ _2939_/A0 _2939_/A1 shift VSS VSS VDD VDD _2939_/X sky130_fd_sc_hd__mux2_1
X__uuf__.u_ex.u_alu._1855_ __uuf__.u_ex.u_alu._1120_/A __uuf__.u_ex.u_alu._1120_/B
+ __uuf__.u_ex.u_alu._1719_/B __uuf__.u_ex.u_alu._1854_/X VSS VSS VDD VDD __uuf__.u_ex.u_alu._1856_/C
+ sky130_fd_sc_hd__a31o_1
XFILLER_109_717 VSS VSS VDD VDD sky130_fd_sc_hd__fill_2
XFILLER_136_503 VSS VSS VDD VDD sky130_fd_sc_hd__fill_4
XFILLER_202_1047 VSS VSS VDD VDD sky130_fd_sc_hd__fill_2
XFILLER_175_160 VSS VSS VDD VDD sky130_fd_sc_hd__fill_8
XFILLER_164_856 VSS VSS VDD VDD sky130_fd_sc_hd__fill_4
X__uuf__.u_ex.u_alu._1786_ __uuf__.u_ex.u_alu._1118_/A __uuf__.u_ex.u_alu._1763_/Y
+ __uuf__.u_ex.u_alu._1784_/X __uuf__.u_ex.u_alu._1785_/Y __uuf__.u_ex.u_alu._1833_/A
+ VSS VSS VDD VDD __uuf__.u_ex.u_alu._1802_/B sky130_fd_sc_hd__o311ai_0
XFILLER_184_28 VSS VSS VDD VDD sky130_fd_sc_hd__fill_2
XFILLER_50_1091 VSS VSS VDD VDD sky130_fd_sc_hd__fill_1
XFILLER_201_8 VSS VSS VDD VDD sky130_fd_sc_hd__fill_8
XFILLER_190_141 VSS VSS VDD VDD sky130_fd_sc_hd__fill_8
XFILLER_105_901 VSS VSS VDD VDD sky130_fd_sc_hd__fill_4
XFILLER_11_1053 VSS VSS VDD VDD sky130_fd_sc_hd__fill_8
XFILLER_2_527 VSS VSS VDD VDD sky130_fd_sc_hd__fill_8
XFILLER_176_1271 VSS VSS VDD VDD sky130_fd_sc_hd__fill_8
XFILLER_116_271 VSS VSS VDD VDD sky130_fd_sc_hd__fill_8
XFILLER_11_1097 VSS VSS VDD VDD sky130_fd_sc_hd__fill_8
XFILLER_132_731 VSS VSS VDD VDD sky130_fd_sc_hd__fill_1
XFILLER_105_956 VSS VSS VDD VDD sky130_fd_sc_hd__fill_1
XFILLER_172_1124 VSS VSS VDD VDD sky130_fd_sc_hd__fill_4
XFILLER_46_1127 VSS VSS VDD VDD sky130_fd_sc_hd__fill_4
XFILLER_104_455 VSS VSS VDD VDD sky130_fd_sc_hd__fill_2
XFILLER_85_1198 VSS VSS VDD VDD sky130_fd_sc_hd__fill_2
XFILLER_172_1157 VSS VSS VDD VDD sky130_fd_sc_hd__fill_4
X__uuf__.u_ex._822_ _3327_/A1 _3391_/A1 VSS VSS VDD VDD __uuf__.u_ex._825_/B sky130_fd_sc_hd__xnor2_1
XFILLER_117_99 VSS VSS VDD VDD sky130_fd_sc_hd__fill_1
XFILLER_77_48 VSS VSS VDD VDD sky130_fd_sc_hd__fill_8
XFILLER_172_1179 VSS VSS VDD VDD sky130_fd_sc_hd__fill_8
XFILLER_213_1121 VSS VSS VDD VDD sky130_fd_sc_hd__fill_8
X__uuf__.u_ex._753_ _3302_/A1 __uuf__.u_ex._751_/Y __uuf__.u_ex._752_/Y VSS VSS VDD
+ VDD __uuf__.u_ex._753_/Y sky130_fd_sc_hd__a21oi_1
XFILLER_133_32 VSS VSS VDD VDD sky130_fd_sc_hd__fill_1
XFILLER_213_1165 VSS VSS VDD VDD sky130_fd_sc_hd__fill_8
XFILLER_100_661 VSS VSS VDD VDD sky130_fd_sc_hd__fill_8
X__uuf__.u_ex._684_ _3338_/A1 _3402_/A1 VSS VSS VDD VDD __uuf__.u_ex._701_/A sky130_fd_sc_hd__lpflow_inputiso1p_1
XTAP_TAPCELL_ROW_51_1096 VSS VDD sky130_fd_sc_hd__tapvpwrvgnd_1
XFILLER_85_361 VSS VSS VDD VDD sky130_fd_sc_hd__fill_1
XFILLER_206_507 VSS VSS VDD VDD sky130_fd_sc_hd__fill_2
XFILLER_18_439 VSS VSS VDD VDD sky130_fd_sc_hd__fill_8
XFILLER_22_1171 VSS VSS VDD VDD sky130_fd_sc_hd__fill_8
X__uuf__.u_id.u_regfile._3270_ __uuf__.u_id.u_regfile._2352_/X __uuf__.u_id.u_regfile._3244_/B
+ __uuf__.u_id.u_regfile._3244_/Y _2207_/A1 VSS VSS VDD VDD _2208_/A0 sky130_fd_sc_hd__a22o_1
XFILLER_93_69 VSS VSS VDD VDD sky130_fd_sc_hd__fill_2
XFILLER_33_409 VSS VSS VDD VDD sky130_fd_sc_hd__fill_8
XFILLER_57_1201 VSS VSS VDD VDD sky130_fd_sc_hd__fill_8
XFILLER_26_63 VSS VSS VDD VDD sky130_fd_sc_hd__fill_8
XFILLER_42_921 VSS VSS VDD VDD sky130_fd_sc_hd__fill_8
XFILLER_214_551 VSS VSS VDD VDD sky130_fd_sc_hd__fill_8
XFILLER_199_753 VSS VSS VDD VDD sky130_fd_sc_hd__fill_8
XFILLER_26_483 VSS VSS VDD VDD sky130_fd_sc_hd__fill_8
XTAP_TAPCELL_ROW_44_949 VSS VDD sky130_fd_sc_hd__tapvpwrvgnd_1
XFILLER_42_943 VSS VSS VDD VDD sky130_fd_sc_hd__fill_2
X__uuf__._1953_ __uuf__._1953_/A0 _3627_/A1 __uuf__._2960_/S VSS VSS VDD VDD __uuf__._1954_/B
+ sky130_fd_sc_hd__mux2i_1
XFILLER_214_595 VSS VSS VDD VDD sky130_fd_sc_hd__fill_8
XFILLER_18_1229 VSS VSS VDD VDD sky130_fd_sc_hd__fill_1
XTAP_TAPCELL_ROW_101_2152 VSS VDD sky130_fd_sc_hd__tapvpwrvgnd_1
XFILLER_199_797 VSS VSS VDD VDD sky130_fd_sc_hd__fill_8
XFILLER_186_414 VSS VSS VDD VDD sky130_fd_sc_hd__fill_8
XFILLER_41_453 VSS VSS VDD VDD sky130_fd_sc_hd__fill_8
XFILLER_187_959 VSS VSS VDD VDD sky130_fd_sc_hd__fill_1
XFILLER_14_689 VSS VSS VDD VDD sky130_fd_sc_hd__fill_1
XFILLER_42_998 VSS VSS VDD VDD sky130_fd_sc_hd__fill_2
X__uuf__._1884_ __uuf__._2960_/S _3548_/A1 __uuf__._2288_/B rst_n VSS VSS VDD VDD
+ __uuf__._1884_/Y sky130_fd_sc_hd__o31ai_1
XFILLER_13_177 VSS VSS VDD VDD sky130_fd_sc_hd__fill_2
XFILLER_158_149 VSS VSS VDD VDD sky130_fd_sc_hd__fill_1
XFILLER_9_137 VSS VSS VDD VDD sky130_fd_sc_hd__fill_8
XFILLER_41_497 VSS VSS VDD VDD sky130_fd_sc_hd__fill_8
XTAP_TAPCELL_ROW_153_3241 VSS VDD sky130_fd_sc_hd__tapvpwrvgnd_1
XFILLER_201_289 VSS VSS VDD VDD sky130_fd_sc_hd__fill_8
XTAP_TAPCELL_ROW_153_3252 VSS VDD sky130_fd_sc_hd__tapvpwrvgnd_1
Xclkbuf_8_188__f___uuf__.__clk_source__ clkbuf_7_94_0___uuf__.__clk_source__/X VSS
+ VSS VDD VDD clkload85/A sky130_fd_sc_hd__clkbuf_4
XFILLER_107_1081 VSS VSS VDD VDD sky130_fd_sc_hd__fill_1
XFILLER_10_851 VSS VSS VDD VDD sky130_fd_sc_hd__fill_8
XFILLER_6_811 VSS VSS VDD VDD sky130_fd_sc_hd__fill_8
X__uuf__._3554_ __uuf__._3554_/CLK _3222_/X VSS VSS VDD VDD _3221_/A1 sky130_fd_sc_hd__dfxtp_1
XFILLER_194_491 VSS VSS VDD VDD sky130_fd_sc_hd__fill_8
XFILLER_10_895 VSS VSS VDD VDD sky130_fd_sc_hd__fill_8
XFILLER_181_130 VSS VSS VDD VDD sky130_fd_sc_hd__fill_8
X__uuf__._2505_ __uuf__._2961_/A __uuf__._2505_/B VSS VSS VDD VDD _3419_/A0 sky130_fd_sc_hd__nor2_1
XFILLER_177_1046 VSS VSS VDD VDD sky130_fd_sc_hd__fill_1
X__uuf__._3485_ clkload112/A _3291_/X VSS VSS VDD VDD _3290_/A1 sky130_fd_sc_hd__dfxtp_1
XFILLER_154_366 VSS VSS VDD VDD sky130_fd_sc_hd__fill_4
X__uuf__.u_if._405_ __uuf__.u_if._402_/Y __uuf__.u_if._403_/Y __uuf__.u_if._404_/Y
+ VSS VSS VDD VDD _2003_/A0 sky130_fd_sc_hd__a21oi_1
XTAP_TAPCELL_ROW_58_1239 VSS VDD sky130_fd_sc_hd__tapvpwrvgnd_1
XFILLER_181_163 VSS VSS VDD VDD sky130_fd_sc_hd__fill_4
XFILLER_170_837 VSS VSS VDD VDD sky130_fd_sc_hd__fill_1
X__uuf__.u_id.u_regfile._2985_ __uuf__.u_id.u_regfile._2307_/X __uuf__.u_id.u_regfile._2973_/Y
+ __uuf__.u_id.u_regfile._2974_/Y _2478_/A1 VSS VSS VDD VDD _2479_/A0 sky130_fd_sc_hd__a22o_1
XFILLER_177_1079 VSS VSS VDD VDD sky130_fd_sc_hd__fill_1
XFILLER_142_539 VSS VSS VDD VDD sky130_fd_sc_hd__fill_4
XFILLER_107_260 VSS VSS VDD VDD sky130_fd_sc_hd__fill_8
X__uuf__._2436_ _3265_/A1 _3452_/A1 __uuf__._2960_/S VSS VSS VDD VDD __uuf__._2437_/B
+ sky130_fd_sc_hd__mux2i_1
X__uuf__.u_if._336_ imem_addr[18] _2022_/A1 __uuf__._2960_/S VSS VSS VDD VDD __uuf__.u_if._337_/B
+ sky130_fd_sc_hd__mux2i_1
XFILLER_47_8 VSS VSS VDD VDD sky130_fd_sc_hd__fill_8
X__uuf__.u_id.u_regfile._4724_ __uuf__.u_id.u_regfile._5588_/CLK _2915_/X VSS VSS
+ VDD VDD _2914_/A1 sky130_fd_sc_hd__dfxtp_1
XFILLER_64_1227 VSS VSS VDD VDD sky130_fd_sc_hd__fill_2
XTAP_TAPCELL_ROW_75_1597 VSS VDD sky130_fd_sc_hd__tapvpwrvgnd_1
X__uuf__._2367_ __uuf__._2371_/A __uuf__._2367_/B VSS VSS VDD VDD _3487_/A0 sky130_fd_sc_hd__nor2_1
XFILLER_111_926 VSS VSS VDD VDD sky130_fd_sc_hd__fill_8
X__uuf__.u_id.u_regfile._4655_ __uuf__.u_id.u_regfile._5296_/CLK _2984_/X VSS VSS
+ VDD VDD _2983_/A1 sky130_fd_sc_hd__dfxtp_1
XFILLER_3_56 VSS VSS VDD VDD sky130_fd_sc_hd__fill_4
XTAP_TAPCELL_ROW_207_4377 VSS VDD sky130_fd_sc_hd__tapvpwrvgnd_1
XFILLER_190_1279 VSS VSS VDD VDD sky130_fd_sc_hd__fill_2
XFILLER_111_959 VSS VSS VDD VDD sky130_fd_sc_hd__fill_1
XTAP_TAPCELL_ROW_8_192 VSS VDD sky130_fd_sc_hd__tapvpwrvgnd_1
XFILLER_7_1121 VSS VSS VDD VDD sky130_fd_sc_hd__fill_8
XFILLER_68_339 VSS VSS VDD VDD sky130_fd_sc_hd__fill_8
XTAP_TAPCELL_ROW_207_4388 VSS VDD sky130_fd_sc_hd__tapvpwrvgnd_1
XFILLER_209_301 VSS VSS VDD VDD sky130_fd_sc_hd__fill_8
X__uuf__.u_id.u_regfile._3606_ _2351_/A1 _2063_/A1 _2511_/A1 _2991_/A1 _3217_/A1 _3215_/A1
+ VSS VSS VDD VDD __uuf__.u_id.u_regfile._3606_/X sky130_fd_sc_hd__mux4_2
X__uuf__._2298_ _3520_/A1 _3536_/A1 __uuf__._2960_/S VSS VSS VDD VDD __uuf__._2299_/B
+ sky130_fd_sc_hd__mux2i_1
XTAP_TAPCELL_ROW_108_2306 VSS VDD sky130_fd_sc_hd__tapvpwrvgnd_1
XFILLER_114_1030 VSS VSS VDD VDD sky130_fd_sc_hd__fill_4
X__uuf__.u_id.u_regfile._4586_ __uuf__.u_id.u_regfile._5411_/CLK _3053_/X VSS VSS
+ VDD VDD _3052_/A1 sky130_fd_sc_hd__dfxtp_1
XFILLER_95_158 VSS VSS VDD VDD sky130_fd_sc_hd__fill_4
XFILLER_7_1165 VSS VSS VDD VDD sky130_fd_sc_hd__fill_8
X__uuf__.u_ex.u_conv_pe._4911_ _3090_/A1 _3107_/A1 VSS VSS VDD VDD __uuf__.u_ex.u_conv_pe._5187_/A
+ sky130_fd_sc_hd__nand2_1
XFILLER_190_71 VSS VSS VDD VDD sky130_fd_sc_hd__fill_8
X__uuf__.u_id.u_regfile._3537_ _2451_/A1 _2483_/A1 _3027_/A1 _3059_/A1 _3217_/A1 _3215_/A1
+ VSS VSS VDD VDD __uuf__.u_id.u_regfile._3539_/B sky130_fd_sc_hd__mux4_2
XFILLER_3_1029 VSS VSS VDD VDD sky130_fd_sc_hd__fill_8
XFILLER_49_597 VSS VSS VDD VDD sky130_fd_sc_hd__fill_2
XTAP_TAPCELL_ROW_125_2653 VSS VDD sky130_fd_sc_hd__tapvpwrvgnd_1
XTAP_TAPCELL_ROW_19_423 VSS VDD sky130_fd_sc_hd__tapvpwrvgnd_1
X__uuf__.u_ex.u_conv_pe._4842_ _3073_/A1 _3126_/A1 VSS VSS VDD VDD __uuf__.u_ex.u_conv_pe._4845_/B
+ sky130_fd_sc_hd__nand2_1
XFILLER_149_1115 VSS VSS VDD VDD sky130_fd_sc_hd__fill_1
XTAP_TAPCELL_ROW_125_2664 VSS VDD sky130_fd_sc_hd__tapvpwrvgnd_1
XFILLER_92_854 VSS VSS VDD VDD sky130_fd_sc_hd__fill_2
XTAP_TAPCELL_ROW_19_434 VSS VDD sky130_fd_sc_hd__tapvpwrvgnd_1
XFILLER_40_1271 VSS VSS VDD VDD sky130_fd_sc_hd__fill_8
XFILLER_149_1137 VSS VSS VDD VDD sky130_fd_sc_hd__fill_2
X__uuf__.u_id.u_regfile._3468_ __uuf__.u_id.u_regfile._3468_/A __uuf__.u_id.u_regfile._3468_/B
+ __uuf__.u_id.u_regfile._3993_/A VSS VSS VDD VDD __uuf__._2502_/A0 sky130_fd_sc_hd__and3_1
XFILLER_64_567 VSS VSS VDD VDD sky130_fd_sc_hd__fill_2
XFILLER_36_269 VSS VSS VDD VDD sky130_fd_sc_hd__fill_1
XFILLER_17_461 VSS VSS VDD VDD sky130_fd_sc_hd__fill_8
XFILLER_45_770 VSS VSS VDD VDD sky130_fd_sc_hd__fill_2
X__uuf__.u_ex.u_conv_pe._4773_ __uuf__.u_ex.u_conv_pe._4767_/C __uuf__.u_ex.u_conv_pe._5053_/A
+ __uuf__.u_ex.u_conv_pe._4772_/Y VSS VSS VDD VDD __uuf__.u_ex.u_conv_pe._4774_/B
+ sky130_fd_sc_hd__o21ai_0
X__uuf__.u_id.u_regfile._5207_ clkload4/A _2432_/X VSS VSS VDD VDD _2431_/A1 sky130_fd_sc_hd__dfxtp_1
XTAP_TAPCELL_ROW_177_3742 VSS VDD sky130_fd_sc_hd__tapvpwrvgnd_1
X__uuf__.u_id.u_regfile._2419_ __uuf__.u_id.u_regfile._2289_/X __uuf__.u_id.u_regfile._2413_/Y
+ __uuf__.u_id.u_regfile._2414_/Y _2996_/A1 VSS VSS VDD VDD _2997_/A0 sky130_fd_sc_hd__a22o_1
XFILLER_45_781 VSS VSS VDD VDD sky130_fd_sc_hd__fill_8
XTAP_TAPCELL_ROW_177_3753 VSS VDD sky130_fd_sc_hd__tapvpwrvgnd_1
X__uuf__.u_id.u_regfile._3399_ __uuf__.u_id.u_regfile._2331_/X __uuf__.u_id.u_regfile._3379_/Y
+ __uuf__.u_id.u_regfile._3380_/X _2086_/A1 VSS VSS VDD VDD _2087_/A0 sky130_fd_sc_hd__a22o_1
XFILLER_51_239 VSS VSS VDD VDD sky130_fd_sc_hd__fill_1
XFILLER_205_573 VSS VSS VDD VDD sky130_fd_sc_hd__fill_8
XFILLER_189_241 VSS VSS VDD VDD sky130_fd_sc_hd__fill_4
X__uuf__.u_ex.u_conv_pe._3724_ __uuf__.u_ex.u_conv_pe._3724_/A __uuf__.u_ex.u_conv_pe._3724_/B
+ __uuf__.u_ex.u_conv_pe._3724_/C VSS VSS VDD VDD __uuf__.u_ex.u_conv_pe._3832_/B
+ sky130_fd_sc_hd__maj3_1
XFILLER_32_431 VSS VSS VDD VDD sky130_fd_sc_hd__fill_8
X__uuf__.u_id.u_regfile._5138_ clkload7/A _2501_/X VSS VSS VDD VDD _2500_/A1 sky130_fd_sc_hd__dfxtp_1
XFILLER_71_1209 VSS VSS VDD VDD sky130_fd_sc_hd__fill_8
X_3842_ tck _3842_/D rst_n VSS VSS VDD VDD _3842_/Q sky130_fd_sc_hd__dfrtp_1
XFILLER_32_475 VSS VSS VDD VDD sky130_fd_sc_hd__fill_8
X__uuf__.u_ex.u_conv_pe._3655_ __uuf__.u_ex.u_conv_pe._3656_/A __uuf__.u_ex.u_conv_pe._3656_/B
+ VSS VSS VDD VDD __uuf__.u_ex.u_conv_pe._3655_/Y sky130_fd_sc_hd__nor2_1
XFILLER_177_458 VSS VSS VDD VDD sky130_fd_sc_hd__fill_8
X__uuf__.u_id.u_regfile._5069_ __uuf__.u_id.u_regfile._5549_/CLK _2570_/X VSS VSS
+ VDD VDD _2569_/A1 sky130_fd_sc_hd__dfxtp_1
X_3773_ _3773_/A0 _3773_/A1 shift VSS VSS VDD VDD _3773_/X sky130_fd_sc_hd__mux2_1
X__uuf__.u_ex.u_conv_pe._3586_ __uuf__.u_ex.u_conv_pe._3586_/A __uuf__.u_ex.u_conv_pe._3620_/C
+ VSS VSS VDD VDD __uuf__.u_ex.u_conv_pe._3619_/B sky130_fd_sc_hd__xnor2_1
XTAP_TAPCELL_ROW_30_654 VSS VDD sky130_fd_sc_hd__tapvpwrvgnd_1
XFILLER_192_439 VSS VSS VDD VDD sky130_fd_sc_hd__fill_8
XTAP_TAPCELL_ROW_30_665 VSS VDD sky130_fd_sc_hd__tapvpwrvgnd_1
X_2724_ _2724_/A0 _2724_/A1 shift VSS VSS VDD VDD _2724_/X sky130_fd_sc_hd__mux2_1
XFILLER_34_1086 VSS VSS VDD VDD sky130_fd_sc_hd__fill_8
X__uuf__.u_ex.u_conv_pe._5325_ __uuf__.u_ex.u_conv_pe._5325_/A __uuf__.u_ex.u_conv_pe._5325_/B
+ __uuf__.u_ex.u_conv_pe._5325_/C VSS VSS VDD VDD __uuf__.u_ex.u_conv_pe._5327_/A
+ sky130_fd_sc_hd__maj3_1
XFILLER_185_491 VSS VSS VDD VDD sky130_fd_sc_hd__fill_8
X__uuf__.u_ex.u_alu._1640_ __uuf__.u_ex.u_alu._1217_/B __uuf__.u_ex.u_alu._1870_/B
+ __uuf__.u_ex.u_alu._1966_/B __uuf__.u_ex.u_alu._1217_/A VSS VSS VDD VDD __uuf__.u_ex.u_alu._1640_/Y
+ sky130_fd_sc_hd__o2bb2ai_1
XFILLER_145_322 VSS VSS VDD VDD sky130_fd_sc_hd__fill_2
XFILLER_9_693 VSS VSS VDD VDD sky130_fd_sc_hd__fill_8
XFILLER_121_1056 VSS VSS VDD VDD sky130_fd_sc_hd__fill_1
XFILLER_69_1116 VSS VSS VDD VDD sky130_fd_sc_hd__fill_4
XFILLER_195_1113 VSS VSS VDD VDD sky130_fd_sc_hd__fill_8
XFILLER_66_0 VSS VSS VDD VDD sky130_fd_sc_hd__fill_8